9
Generated by autodE on: 2024-04-22. charge = 0 mult = 1 E = -117.908951 Ha
C     1.23381  -0.47610  -0.33835
C    -0.08952  -0.41148  -0.27136
C    -0.85903   0.56181   0.57140
H     1.73594  -1.20363  -0.96792
H     1.86314   0.19926   0.23634
H    -0.68133  -1.10799  -0.86470
H    -1.50039   0.03614   1.28692
H    -1.51485   1.18163  -0.04934
H    -0.18766   1.22026   1.12850
